*Heading
** Job name: Job-2 Model name: Model-1
** Generated by: Abaqus/CAE Student Edition 2021
*Preprint, echo=NO, model=NO, history=NO, contact=NO
**
** PARTS
**
*Part, name=Part-5
*Node
      1,   105.464249,          8.5,           0.
      2,   329.464264,          8.5,           0.
      3,   105.464249,          7.5,           0.
      4,   103.464249,          7.5,           0.
      5,   103.464249,          8.5,           0.
      6,  -82.5357513,          8.5,           0.
      7,  -82.5357513,          15.,           0.
      8,   329.464233,          15.,           0.
      9,   115.203377,          8.5,           0.
     10,   124.942513,          8.5,           0.
     11,   134.681641,          8.5,           0.
     12,   144.420776,          8.5,           0.
     13,   154.159897,          8.5,           0.
     14,   163.899033,          8.5,           0.
     15,   173.638168,          8.5,           0.
     16,   183.377289,          8.5,           0.
     17,   193.116425,          8.5,           0.
     18,    202.85556,          8.5,           0.
     19,   212.594681,          8.5,           0.
     20,   222.333817,          8.5,           0.
** ... 708 like lines cut
*Element, type=C3D8R
  1,  49,  30,   2,   8, 140, 121,  93,  99
  2,  90,  71,  48,   5, 181, 162, 139,  96
  3,  71,  72,  47,  48, 162, 163, 138, 139
  4,   5,   4,   3,   1,  96,  95,  94,  92
  5,  69,  70,  89,  91, 160, 161, 180, 182
  6,  91,   9,  10,  69, 182, 100, 101, 160
  7,  69,  10,  11,  68, 160, 101, 102, 159
  8,  68,  11,  12,  67, 159, 102, 103, 158
  9,  67,  12,  13,  66, 158, 103, 104, 157
 10,  66,  13,  14,  65, 157, 104, 105, 156
 11,  65,  14,  15,  64, 156, 105, 106, 155
 12,  64,  15,  16,  63, 155, 106, 107, 154
 13,  63,  16,  17,  62, 154, 107, 108, 153
 14,  62,  17,  18,  61, 153, 108, 109, 152
 15,  61,  18,  19,  60, 152, 109, 110, 151
 16,  60,  19,  20,  59, 151, 110, 111, 150
 17,  59,  20,  21,  58, 150, 111, 112, 149
 18,  58,  21,  22,  57, 149, 112, 113, 148
 19,  57,  22,  23,  56, 148, 113, 114, 147
 20,  56,  23,  24,  55, 147, 114, 115, 146
** ... 302 like lines cut
*Nset, nset=Set-1, generate
   1,  728,    1
*Elset, elset=Set-1, generate
   1,  322,    1
** Section: Section-1
*Solid Section, elset=Set-1, material=Steel
,
*End Part
**  
**
** ASSEMBLY
**
*Assembly, name=Assembly
**  
*Instance, name=Part-5-1, part=Part-5
*End Instance
**  
*Nset, nset=Set-2, instance=Part-5-1
   1,   2,   3,   4,   5,   6,  92,  93,  94,  95,  96,  97, 183, 184, 185, 186
 187, 188, 274, 275, 276, 277, 278, 279, 365, 366, 367, 368, 369, 370, 456, 457
 458, 459, 460, 461, 547, 548, 549, 550, 551, 552, 638, 639, 640, 641, 642, 643
*Elset, elset=Set-2, instance=Part-5-1
   1,   4,  27,  47,  50,  73,  93,  96, 119, 139, 142, 165, 185, 188, 211, 231
 234, 257, 277, 280, 303
*End Assembly
** 
** MATERIALS
** 
*Material, name=Steel
*Density
 0.0830927,
*Elastic
 4.7862e+06, 0.2
** 
** INTERACTION PROPERTIES
** 
*Surface Interaction, name=IntProp-1
1.,
*Friction, slip tolerance=0.005
100.,
*Surface Behavior, pressure-overclosure=HARD
** ----------------------------------------------------------------
** 
** STEP: load
** 
*Step, name=load, nlgeom=NO
*Static
1., 1., 1e-05, 1.
** 
** BOUNDARY CONDITIONS
** 
** Name: BC-2 Type: Displacement/Rotation
*Boundary
Set-2, 1, 1
Set-2, 2, 2
Set-2, 3, 3
Set-2, 4, 4
Set-2, 5, 5
** 
** OUTPUT REQUESTS
** 
*Restart, write, frequency=0
** 
** FIELD OUTPUT: F-Output-1
** 
*Output, field, variable=PRESELECT
** 
** HISTORY OUTPUT: H-Output-1
** 
*Output, history, variable=PRESELECT
*End Step
** ----------------------------------------------------------------
** 
** STEP: Step-2
** 
*Step, name=Step-2, nlgeom=NO, perturbation
*Frequency, eigensolver=Lanczos, sim, acoustic coupling=on, normalization=mass
40, , , , , 
** 
** OUTPUT REQUESTS
** 
*Restart, write, frequency=0
** 
** FIELD OUTPUT: F-Output-2
** 
*Output, field, variable=PRESELECT
*End Step
